tests/data/power_flow/floating-ground-no-error/linear/wye-zigzag_n/asym_output.json
{
  "version": "1.0",
  "type": "asym_output",
  "is_batch": false,
  "attributes": {},
  "data": {
    "node": [
      {"id": 1, "energized": 1, "u_pu": [0.99999999999992273, 0.99999999999992273, 0.99999999999992251], "u": [5773.502691895811, 5773.502691895811, 5773.5026918958101], "u_angle": [6.3321425202771386e-14, -2.0943951023931322, 2.0943951023932588], "p": [3.3332500040140132, 3.3332500040065929, 3.333250004092315], "q": [33.165418788725233, 33.165418788763112, 33.165418788723905]},
      {"id": 2, "energized": 1, "u_pu": [0.99995000249979793, 0.99995000249979804, 0.99995000249979793], "u": [57.73214031194253, 57.732140311942537, 57.73214031194253], "u_angle": [-0.52359877559823487, -2.6179938779914305, 1.5707963267949603], "p": [1.5660951112263906e-10, 7.896897590733494e-11, -1.9427931534362023e-10], "q": [1.2323329471305662e-10, -2.1078944624310888e-10, -1.2360082126670034e-23]}
    ],
    "transformer": [
      {"id": 4, "energized": 1, "loading": 0.00099997500124732034, "p_from": [3.3332500040140132, 3.3332500040065929, 3.333250004092315], "q_from": [33.165418788725233, 33.165418788763112, 33.165418788723905], "i_from": [0.0057733583615283066, 0.0057733583615347051, 0.0057733583615294341], "s_from": [33.332500041562859, 33.332500041599808, 33.332500041569375], "p_to": [1.5660951112263906e-10, 7.896897590733494e-11, -1.9427931534362023e-10], "q_to": [1.2323329471305662e-10, -2.1078944624310888e-10, -1.2360082126670034e-23], "i_to": [3.4518236613818641e-12, 3.8989751252985165e-12, 3.3651847011712367e-12], "s_to": [1.9928116795098095e-10, 2.2509617900650761e-10, 1.9427931534362023e-10]}
    ],
    "source": [
      {"id": 3, "energized": 1, "p": [3.3332500040140132, 3.3332500040065907, 3.333250004092315], "q": [33.165418788725233, 33.165418788763112, 33.165418788723905], "i": [0.0057733583615283066, 0.0057733583615347051, 0.0057733583615294341], "s": [33.332500041562859, 33.332500041599808, 33.332500041569375], "pf": [0.099999999995731711, 0.099999999995398187, 0.099999999998061279]}
    ],
    "asym_load": [
      {"id": 21, "energized": 0, "p": [-0, -0, -0], "q": [-0, -0, -0], "i": [0, 0, 0], "s": [0, 0, 0], "pf": [0, 0, 0]}
    ]
  }
}